<?xml version="1.0" encoding="UTF-8"?>
<routes>
    <route>
        <point>
            <x>-50.255</x>
            <y>-130.369</y>
            <speed>1.38889</speed>
            <time>0</time>
        </point>
        <point>
            <x>-49.515</x>
            <y>-131.544</y>
            <speed>1.38889</speed>
            <time>2000</time>
        </point>
        <point>
            <x>-49.923</x>
            <y>-133.409</y>
            <speed>1.38889</speed>
            <time>4000</time>
        </point>
        <point>
            <x>-50.996</x>
            <y>-134.686</y>
            <speed>1.38889</speed>
            <time>6000</time>
        </point>
        <point>
            <x>-53.78</x>
            <y>-135.299</y>
            <speed>1.38889</speed>
            <time>8000</time>
        </point>
        <point>
            <x>-56.955</x>
            <y>-134.907</y>
            <speed>3.33333</speed>
            <time>24000</time>
        </point>
        <point>
            <x>-61.801</x>
            <y>-132.31</y>
            <speed>8.33333</speed>
            <time>24000</time>
        </point>
        <point>
            <x>-71.678</x>
            <y>-124.794</y>
            <speed>8.33333</speed>
            <time>24000</time>
        </point>
        <point>
            <x>-77.035</x>
            <y>-119.614</y>
            <speed>1.38889</speed>
            <time>16000</time>
        </point>
        <point>
            <x>-76.051</x>
            <y>-117.622</y>
            <speed>1.38889</speed>
            <time>18000</time>
        </point>
        <point>
            <x>-73.052</x>
            <y>-117.886</y>
            <speed>1.38889</speed>
            <time>20000</time>
        </point>
        <point>
            <x>-51.702</x>
            <y>-129.749</y>
            <speed>1.38889</speed>
            <time>22000</time>
        </point>
    </route>
</routes>
