<?xml version="1.0" encoding="UTF-8"?>
<routes>
    <route>
        <point>
            <x>-50.255</x>
            <y>-130.369</y>
            <speed>1.38889</speed>
            <time>0</time>
        </point>
        <point>
            <x>-49.515</x>
            <y>-131.544</y>
            <speed>1.38889</speed>
            <time>2000</time>
        </point>
        <point>
            <x>-49.923</x>
            <y>-133.409</y>
            <speed>1.38889</speed>
            <time>4000</time>
        </point>
        <point>
            <x>-50.996</x>
            <y>-134.686</y>
            <speed>1.38889</speed>
            <time>6000</time>
        </point>
        <point>
            <x>-53.78</x>
            <y>-135.299</y>
            <speed>1.38889</speed>
            <time>8000</time>
        </point>
        <point>
            <x>-56.955</x>
            <y>-134.907</y>
            <speed>3.33333</speed>
            <time>24000</time>
        </point>
        <point>
            <x>-61.801</x>
            <y>-132.31</y>
            <speed>8.33333</speed>
            <time>24000</time>
        </point>
        <point>
            <x>-71.678</x>
            <y>-124.794</y>
            <speed>8.33333</speed>
            <time>24000</time>
        </point>
        <point>
            <x>-77.035</x>
            <y>-119.614</y>
            <speed>1.38889</speed>
            <time>16000</time>
        </point>
        <point>
            <x>-76.051</x>
            <y>-117.622</y>
            <speed>1.38889</speed>
            <time>18000</time>
        </point>
        <point>
            <x>-73.052</x>
            <y>-117.886</y>
            <speed>1.38889</speed>
            <time>20000</time>
        </point>
        <point>
            <x>-51.702</x>
            <y>-129.749</y>
            <speed>1.38889</speed>
            <time>22000</time>
        </point>
    </route>
    <route>
        <point>
            <x>-47.343</x>
            <y>-130.933</y>
            <speed>1.66667</speed>
            <time>24000</time>
        </point>
        <point>
            <x>-44.192</x>
            <y>-131.471</y>
            <speed>1.66667</speed>
            <time>26000</time>
        </point>
        <point>
            <x>-41.271</x>
            <y>-132.163</y>
            <speed>1.66667</speed>
            <time>28000</time>
        </point>
        <point>
            <x>-40.246</x>
            <y>-133.725</y>
            <speed>1.66667</speed>
            <time>30000</time>
        </point>
        <point>
            <x>-40.323</x>
            <y>-134.878</y>
            <speed>1.66667</speed>
            <time>32000</time>
        </point>
        <point>
            <x>-41.066</x>
            <y>-135.596</y>
            <speed>1.66667</speed>
            <time>34000</time>
        </point>
        <point>
            <x>-42.424</x>
            <y>-135.903</y>
            <speed>1.66667</speed>
            <time>36000</time>
        </point>
        <point>
            <x>-43.603</x>
            <y>-135.903</y>
            <speed>1.66667</speed>
            <time>38000</time>
        </point>
        <point>
            <x>-46.523</x>
            <y>-135.544</y>
            <speed>4.44444</speed>
            <time>40000</time>
        </point>
        <point>
            <x>-53.467</x>
            <y>-134.673</y>
            <speed>8.33333</speed>
            <time>42000</time>
        </point>
        <point>
            <x>-75.373</x>
            <y>-120.582</y>
            <speed>8.33333</speed>
            <time>44000</time>
        </point>
        <point>
            <x>-78.114</x>
            <y>-118.25</y>
            <speed>5</speed>
            <time>46000</time>
        </point>
        <point>
            <x>-82.675</x>
            <y>-114.74</y>
            <speed>1.38889</speed>
            <time>48000</time>
        </point>
        <point>
            <x>-83.674</x>
            <y>-113.844</y>
            <speed>1.38889</speed>
            <time>50000</time>
        </point>
        <point>
            <x>-84.212</x>
            <y>-112.281</y>
            <speed>1.38889</speed>
            <time>52000</time>
        </point>
        <point>
            <x>-83.853</x>
            <y>-111.538</y>
            <speed>1.38889</speed>
            <time>54000</time>
        </point>
        <point>
            <x>-82.367</x>
            <y>-111.128</y>
            <speed>1.38889</speed>
            <time>56000</time>
        </point>
        <point>
            <x>-80.01</x>
            <y>-111.461</y>
            <speed>2.77778</speed>
            <time>68000</time>
        </point>
        <point>
            <x>-62.895</x>
            <y>-122.478</y>
            <speed>2.77778</speed>
            <time>68000</time>
        </point>
        <point>
            <x>-53.697</x>
            <y>-128.96</y>
            <speed>2.77778</speed>
            <time>68000</time>
        </point>
        <point>
            <x>-49.7</x>
            <y>-130.497</y>
            <speed>2.77778</speed>
            <time>68000</time>
        </point>
    </route>
</routes>
